/*--------------------------------*- C++ -*----------------------------------*\
  =========                 |
  \\      /  F ield         | OpenFOAM: The Open Source CFD Toolbox
   \\    /   O peration     | Website:  https://openfoam.org
    \\  /    A nd           | Version:  12
     \\/     M anipulation  |
\*---------------------------------------------------------------------------*/
FoamFile
{
    format      ascii;
    class       dictionary;
    location    "system";
    object      functions;
}
// * * * * * * * * * * * * * * * * * * * * * * * * * * * * * * * * * * * * * //

#includeFunc residuals
(
    name = residuals,
    fields = (p U),
    log = true
)

// For scalars
cellMin
{
    #includeEtc "caseDicts/postProcessing/volFieldValue/cellMin.cfg"
    enabled       true;  // true or false
    log           true; // write to screen
    fields  (p);
}

cellMax
{
    #includeEtc "caseDicts/postProcessing/volFieldValue/cellMax.cfg"
    enabled       true;  // true or false
    log           true; // write to screen
    fields  (p);
}

// For vectors
cellMinMag
{
    #includeEtc "caseDicts/postProcessing/volFieldValue/cellMinMag.cfg"
    enabled       true;  // true or false
    log           true; // write to screen
    fields  (U);
}

cellMaxMag
{
    #includeEtc "caseDicts/postProcessing/volFieldValue/cellMaxMag.cfg"
    enabled       true;  // true or false
    log           true; // write to screen
    fields  (U);
}

// ************************************************************************* //